Hi I'm Anjalee! From Toronto, sophomore yay

New line. I have a dog named merlin.